MODEL 1
REMARK VINA RESULT:      -5.6      0.000      0.000
REMARK  4 active torsions:
REMARK  status: ('A' for Active; 'I' for Inactive)
REMARK    1  A    between atoms: O_1  and  C_6 
REMARK    2  A    between atoms: O_2  and  C_7 
REMARK    3  A    between atoms: O_3  and  C_11 
REMARK    4  A    between atoms: C_5  and  C_11 
ROOT
HETATM    1  C   UNK N   1      16.125  19.738   4.008  0.00  0.00     0.073 A 
HETATM    2  C   UNK N   1      17.383  19.151   3.869  0.00  0.00     0.115 A 
HETATM    3  C   UNK N   1      17.632  18.280   2.808  0.00  0.00     0.099 A 
HETATM    4  C   UNK N   1      15.117  19.455   3.087  0.00  0.00     0.021 A 
HETATM    5  C   UNK N   1      16.624  17.996   1.886  0.00  0.00     0.039 A 
HETATM    6  C   UNK N   1      15.367  18.584   2.025  0.00  0.00     0.004 A 
ENDROOT
BRANCH   1   7
HETATM    7  C   UNK N   1      15.842  20.650   5.108  0.00  0.00     0.179 C 
HETATM    8  O   UNK N   1      15.777  20.332   6.299  0.00  0.00    -0.646 OA
BRANCH   7   9
HETATM    9  O   UNK N   1      15.652  21.929   4.686  0.00  0.00    -0.773 OA
HETATM   10  H   UNK N   1      14.886  22.350   5.131  0.00  0.00     0.167 HD
ENDBRANCH   7   9
ENDBRANCH   1   7
BRANCH   2  11
HETATM   11  O   UNK N   1      18.373  19.425   4.766  0.00  0.00    -0.357 OA
HETATM   12  H   UNK N   1      19.248  19.314   4.360  0.00  0.00     0.218 HD
ENDBRANCH   2  11
BRANCH   3  13
HETATM   13  O   UNK N   1      18.856  17.699   2.660  0.00  0.00    -0.358 OA
HETATM   14  H   UNK N   1      19.458  18.353   2.267  0.00  0.00     0.218 HD
ENDBRANCH   3  13
TORSDOF 4
ENDMDL
