MODEL 1
REMARK VINA RESULT:      -5.7      0.000      0.000
REMARK  2 active torsions:
REMARK  status: ('A' for Active; 'I' for Inactive)
REMARK    1  A    between atoms: N_6  and  C_8 
REMARK    2  A    between atoms: N_7  and  C_9 
ROOT
HETATM    1 Cl   UNK N   1       9.437  28.119  10.471  0.00  0.00    -0.082 Cl
HETATM    2  C   UNK N   1       9.297  27.153   7.917  0.00  0.00     0.127 A 
HETATM    3  C   UNK N   1      11.027  25.768   6.954  0.00  0.00     0.105 A 
HETATM    4  C   UNK N   1       9.801  26.423   6.840  0.00  0.00     0.073 A 
HETATM    5  C   UNK N   1      10.019  27.228   9.108  0.00  0.00     0.067 A 
HETATM    6  C   UNK N   1      11.750  25.844   8.145  0.00  0.00     0.038 A 
HETATM    7  C   UNK N   1      11.245  26.573   9.222  0.00  0.00     0.029 A 
ENDROOT
BRANCH   2   8
HETATM    8  N   UNK N   1       8.043  27.809   7.762  0.00  0.00    -0.114 N 
HETATM    9  O   UNK N   1       8.029  29.009   7.401  0.00  0.00    -0.532 OA
HETATM   10  O   UNK N   1       6.992  27.167   7.991  0.00  0.00    -0.532 OA
ENDBRANCH   2   8
BRANCH   3  11
HETATM   11  N   UNK N   1      11.541  25.025   5.859  0.00  0.00    -0.116 N 
HETATM   12  O   UNK N   1      12.673  25.318   5.404  0.00  0.00    -0.532 OA
HETATM   13  O   UNK N   1      10.850  24.095   5.377  0.00  0.00    -0.532 OA
ENDBRANCH   3  11
TORSDOF 2
ENDMDL
