REMARK  1 active torsions:
REMARK  status: ('A' for Active; 'I' for Inactive)
REMARK    1  A    between atoms: C_3  and  C_4 
ROOT
HETATM    1 Cl   UNK N   1       1.646  -0.711   0.138  0.00  0.00    -0.129 Cl
HETATM    2  C   UNK N   1       0.684   0.711  -0.331  0.00  0.00     0.129 C 
ENDROOT
BRANCH   2   3
HETATM    3  C   UNK N   1      -0.684   0.711   0.331  0.00  0.00     0.129 C 
HETATM    4 Cl   UNK N   1      -1.646  -0.711  -0.138  0.00  0.00    -0.129 Cl
ENDBRANCH   2   3
TORSDOF 1
