REMARK  4 active torsions:
REMARK  status: ('A' for Active; 'I' for Inactive)
REMARK    1  A    between atoms: O_1  and  C_6 
REMARK    2  A    between atoms: O_2  and  C_7 
REMARK    3  A    between atoms: O_3  and  C_11 
REMARK    4  A    between atoms: C_5  and  C_11 
ROOT
HETATM    1  C   UNK N   1       0.598   0.251   0.038  0.00  0.00     0.073 A 
HETATM    2  C   UNK N   1      -0.401  -0.719  -0.045  0.00  0.00     0.115 A 
HETATM    3  C   UNK N   1      -1.743  -0.340  -0.038  0.00  0.00     0.099 A 
HETATM    4  C   UNK N   1       0.255   1.600   0.127  0.00  0.00     0.021 A 
HETATM    5  C   UNK N   1      -2.087   1.009   0.051  0.00  0.00     0.039 A 
HETATM    6  C   UNK N   1      -1.088   1.979   0.133  0.00  0.00     0.004 A 
ENDROOT
BRANCH   1   7
HETATM    7  C   UNK N   1       2.006  -0.122   0.034  0.00  0.00     0.179 C 
HETATM    8  O   UNK N   1       2.465  -1.181   0.471  0.00  0.00    -0.646 OA
BRANCH   7   9
HETATM    9  O   UNK N   1       2.795   0.839  -0.518  0.00  0.00    -0.773 OA
HETATM   10  H   UNK N   1       3.741   0.579  -0.517  0.00  0.00     0.167 HD
ENDBRANCH   7   9
ENDBRANCH   1   7
BRANCH   2  11
HETATM   11  O   UNK N   1      -0.072  -2.040  -0.133  0.00  0.00    -0.357 OA
HETATM   12  H   UNK N   1       0.890  -2.154  -0.187  0.00  0.00     0.218 HD
ENDBRANCH   2  11
BRANCH   3  13
HETATM   13  O   UNK N   1      -2.729  -1.277  -0.118  0.00  0.00    -0.358 OA
HETATM   14  H   UNK N   1      -2.313  -2.154  -0.173  0.00  0.00     0.218 HD
ENDBRANCH   3  13
TORSDOF 4
