REMARK  2 active torsions:
REMARK  status: ('A' for Active; 'I' for Inactive)
REMARK    1  A    between atoms: N_6  and  C_8 
REMARK    2  A    between atoms: N_7  and  C_9 
ROOT
HETATM    1 Cl   UNK N   1      -2.781  -1.847  -0.001  0.00  0.00    -0.082 Cl
HETATM    2  C   UNK N   1      -0.987   0.216  -0.001  0.00  0.00     0.127 A 
HETATM    3  C   UNK N   1       1.403  -0.140   0.000  0.00  0.00     0.105 A 
HETATM    4  C   UNK N   1       0.311   0.728  -0.001  0.00  0.00     0.073 A 
HETATM    5  C   UNK N   1      -1.193  -1.164  -0.000  0.00  0.00     0.067 A 
HETATM    6  C   UNK N   1       1.197  -1.520   0.001  0.00  0.00     0.038 A 
HETATM    7  C   UNK N   1      -0.101  -2.031   0.000  0.00  0.00     0.029 A 
ENDROOT
BRANCH   2   8
HETATM    8  N   UNK N   1      -2.076   1.133   0.000  0.00  0.00    -0.114 N 
HETATM    9  O   UNK N   1      -1.831   2.362   0.001  0.00  0.00    -0.532 OA
HETATM   10  O   UNK N   1      -3.245   0.683  -0.000  0.00  0.00    -0.532 OA
ENDBRANCH   2   8
BRANCH   3  11
HETATM   11  N   UNK N   1       2.724   0.379   0.000  0.00  0.00    -0.116 N 
HETATM   12  O   UNK N   1       3.691  -0.420   0.000  0.00  0.00    -0.532 OA
HETATM   13  O   UNK N   1       2.889   1.623  -0.001  0.00  0.00    -0.532 OA
ENDBRANCH   3  11
TORSDOF 2
